Version 4
SHEET 1 2736 916
WIRE -208 288 -288 288
WIRE -48 288 -128 288
WIRE 32 288 -48 288
WIRE 128 288 32 288
WIRE 272 288 128 288
WIRE 448 304 336 304
WIRE 480 304 448 304
WIRE 528 304 480 304
WIRE 688 304 592 304
WIRE 1216 304 688 304
WIRE 1280 304 1216 304
WIRE 1312 304 1280 304
WIRE 1648 304 1312 304
WIRE 32 320 32 288
WIRE 272 320 224 320
WIRE 1792 320 1712 320
WIRE -288 336 -288 288
WIRE -48 336 -48 288
WIRE 1216 336 1216 304
WIRE 1648 336 1600 336
WIRE -480 352 -480 320
WIRE 128 352 128 288
WIRE 2416 368 2112 368
WIRE -480 384 -480 352
WIRE 1312 384 1312 304
WIRE 2416 384 2416 368
WIRE 1600 400 1600 336
WIRE 1680 400 1600 400
WIRE 1792 400 1792 320
WIRE 1792 400 1760 400
WIRE 224 416 224 320
WIRE 272 416 448 304
WIRE 272 416 224 416
WIRE 480 416 480 304
WIRE 512 416 480 416
WIRE 688 416 688 304
WIRE 688 416 608 416
WIRE 1600 416 1600 400
WIRE 32 432 32 400
WIRE 128 432 128 416
WIRE 128 432 32 432
WIRE 912 432 864 432
WIRE 1040 432 992 432
WIRE -48 448 -48 416
WIRE 1040 448 1040 432
WIRE 1088 448 1040 448
WIRE 1216 448 1216 416
WIRE 1216 448 1168 448
WIRE 1264 448 1216 448
WIRE -288 464 -288 416
WIRE 128 464 128 432
WIRE 2112 480 2112 448
WIRE 2144 480 2112 480
WIRE 2256 480 2224 480
WIRE 688 496 336 496
WIRE 1600 512 1600 496
WIRE 2112 512 2112 480
WIRE 688 528 688 496
WIRE 704 528 688 528
WIRE 752 528 704 528
WIRE 864 528 864 432
WIRE 864 528 832 528
WIRE 928 528 864 528
WIRE 336 544 336 496
WIRE 416 544 336 544
WIRE 1040 544 1040 448
WIRE 1040 544 992 544
WIRE 576 560 576 464
WIRE 576 560 480 560
WIRE 928 560 896 560
WIRE 2256 560 2208 560
WIRE 2416 560 2416 464
WIRE 2416 560 2256 560
WIRE 416 576 352 576
WIRE 2208 592 2208 560
WIRE 2208 592 2112 592
WIRE 352 608 352 576
WIRE 896 608 896 560
WIRE 560 752 352 752
WIRE 704 752 704 528
WIRE 704 752 640 752
WIRE 848 752 704 752
WIRE 1120 752 928 752
WIRE 352 816 352 752
WIRE 1120 896 1120 752
WIRE 1120 896 352 896
FLAG -480 352 0
FLAG -480 240 V+
FLAG -480 464 V-
FLAG 304 336 V-
FLAG -288 464 0
FLAG -48 528 0
FLAG 128 464 0
FLAG 1680 288 V+
FLAG 1680 352 V-
FLAG 1600 512 0
FLAG 352 896 0
FLAG 1312 480 0
FLAG 960 576 V+
FLAG 960 512 V-
FLAG 1280 304 out
FLAG 896 608 0
FLAG 448 592 V-
FLAG 352 688 0
FLAG 448 528 V+
FLAG 2256 560 0
FLAG 304 272 V+
SYMBOL voltage -480 224 R0
WINDOW 123 0 0 Left 0
WINDOW 39 0 0 Left 0
SYMATTR InstName V1
SYMATTR Value 12
SYMBOL voltage -480 368 R0
WINDOW 123 0 0 Left 0
WINDOW 39 0 0 Left 0
SYMATTR InstName V2
SYMATTR Value 12
SYMBOL voltage -288 320 R0
WINDOW 3 -219 265 Left 2
WINDOW 123 -219 293 Left 2
WINDOW 39 0 0 Left 0
SYMATTR Value PULSE(0 3.3 0 1u 1u 5m 10m)
SYMATTR Value2 AC 1 0
SYMATTR InstName V3
SYMBOL voltage -48 432 R0
WINDOW 3 -219 265 Left 2
WINDOW 123 0 0 Left 0
WINDOW 39 0 0 Left 0
SYMATTR Value PULSE(0 3.3 .5m 1u 1u 1m 5m)
SYMATTR InstName V4
SYMBOL res -112 272 R90
WINDOW 0 0 56 VBottom 2
WINDOW 3 32 56 VTop 2
SYMATTR InstName R2
SYMATTR Value 10k
SYMBOL cap 112 352 R0
SYMATTR InstName C1
SYMATTR Value 1n
SYMBOL cap 592 288 R90
WINDOW 0 0 32 VBottom 2
WINDOW 3 32 32 VTop 2
SYMATTR InstName C2
SYMATTR Value 1µ
SYMBOL res 1616 400 M0
SYMATTR InstName R4
SYMATTR Value 33k
SYMBOL res 1776 384 R90
WINDOW 0 0 56 VBottom 2
WINDOW 3 32 56 VTop 2
SYMATTR InstName R5
SYMATTR Value 100k
SYMBOL voltage 352 800 R0
WINDOW 3 42 94 Left 2
WINDOW 123 0 0 Left 0
WINDOW 39 0 0 Left 0
SYMATTR Value 3.3
SYMATTR InstName V5
SYMBOL res 1008 416 R90
WINDOW 0 0 56 VBottom 2
WINDOW 3 32 56 VTop 2
SYMATTR InstName R3
SYMATTR Value 100k
SYMBOL res 848 512 R90
WINDOW 0 0 56 VBottom 2
WINDOW 3 32 56 VTop 2
SYMATTR InstName R7
SYMATTR Value 22k
SYMBOL res 16 304 R0
SYMATTR InstName R9
SYMATTR Value 10k
SYMBOL njf 1264 384 R0
SYMATTR InstName J1
SYMATTR Value PN4391
SYMBOL res 1072 464 R270
WINDOW 0 32 56 VTop 2
WINDOW 3 0 56 VBottom 2
SYMATTR InstName R8
SYMATTR Value 100k
SYMBOL res 1200 320 R0
SYMATTR InstName R6
SYMATTR Value 100k
SYMBOL njf 512 464 R270
SYMATTR InstName J2
SYMATTR Value PN4391
SYMBOL voltage 352 592 R0
WINDOW 123 0 0 Left 0
WINDOW 39 0 0 Left 0
SYMATTR InstName V6
SYMATTR Value 3
SYMBOL res -32 432 R180
WINDOW 0 36 76 Left 2
WINDOW 3 36 40 Left 2
SYMATTR InstName R1
SYMATTR Value 10k
SYMBOL voltage 2256 464 R0
WINDOW 3 42 94 Left 2
WINDOW 123 0 0 Left 0
WINDOW 39 0 0 Left 0
SYMATTR Value PULSE(-10 10 0 0 0 .5m 1m)
SYMATTR InstName V8
SYMBOL res 2128 464 R180
WINDOW 0 36 76 Left 2
WINDOW 3 36 40 Left 2
SYMATTR InstName R10
SYMATTR Value 3.3k
SYMBOL res 2128 608 R180
WINDOW 0 36 76 Left 2
WINDOW 3 36 40 Left 2
SYMATTR InstName R11
SYMATTR Value 5k
SYMBOL res 2128 496 R270
WINDOW 0 32 56 VTop 2
WINDOW 3 0 56 VBottom 2
SYMATTR InstName R12
SYMATTR Value 10k
SYMBOL voltage 2416 368 R0
WINDOW 3 42 94 Left 2
WINDOW 123 0 0 Left 0
WINDOW 39 0 0 Left 0
SYMATTR Value 3.3
SYMATTR InstName V7
SYMBOL TL072 272 304 R0
SYMATTR InstName U5
SYMBOL TL072 416 560 R0
SYMATTR InstName U1
SYMBOL TL072 928 544 M180
SYMATTR InstName U2
SYMBOL TL072 1648 320 R0
SYMATTR InstName U3
SYMBOL res 656 736 R90
WINDOW 0 0 56 VBottom 2
WINDOW 3 32 56 VTop 2
SYMATTR InstName R13
SYMATTR Value R=VCTRL*100000
SYMBOL res 944 736 R90
WINDOW 0 0 56 VBottom 2
WINDOW 3 32 56 VTop 2
SYMATTR InstName R14
SYMATTR Value R=(1-VCTRL)*100000
TEXT -512 536 Left 2 !;tran 5m
TEXT 1272 592 Left 2 !.step param VCTRL .01 .99.1
TEXT 1448 760 Left 2 !.ac oct 5m 2 200000
